<?xml version="1.0" encoding="UTF-8"?>

<!-- generated on 2025-02-20 20:31:53 by Eclipse SUMO netconvert Version 1.18.0
<configuration xmlns:xsi="http://www.w3.org/2001/XMLSchema-instance" xsi:noNamespaceSchemaLocation="http://sumo.dlr.de/xsd/netconvertConfiguration.xsd">

    <input>
        <osm-files value="map.osm"/>
    </input>

    <output>
        <output-file value="network.net.xml"/>
    </output>

    <projection>
        <proj.utm value="true"/>
    </projection>

</configuration>
-->

<net version="1.16" junctionCornerDetail="5" limitTurnSpeed="5.50" xmlns:xsi="http://www.w3.org/2001/XMLSchema-instance" xsi:noNamespaceSchemaLocation="http://sumo.dlr.de/xsd/net_file.xsd">

    <location netOffset="-780136.66,-1431551.36" convBoundary="0.00,0.00,1205.57,1329.96" origBoundary="77.581910,12.936691,77.593083,12.948622" projParameter="+proj=utm +zone=43 +ellps=WGS84 +datum=WGS84 +units=m +no_defs"/>

    <type id="highway.footway" priority="1" numLanes="1" speed="2.78" allow="pedestrian" oneway="1" width="2.00"/>
    <type id="highway.living_street" priority="2" numLanes="1" speed="2.78" disallow="tram rail_urban rail rail_electric rail_fast ship" oneway="0"/>
    <type id="highway.residential" priority="3" numLanes="1" speed="13.89" disallow="tram rail_urban rail rail_electric rail_fast ship" oneway="0"/>
    <type id="highway.secondary" priority="11" numLanes="1" speed="27.78" disallow="tram rail_urban rail rail_electric rail_fast ship" oneway="0"/>
    <type id="highway.service" priority="1" numLanes="1" speed="5.56" allow="pedestrian delivery bicycle" oneway="0"/>
    <type id="highway.tertiary" priority="10" numLanes="1" speed="22.22" disallow="tram rail_urban rail rail_electric rail_fast ship" oneway="0"/>

    <edge id=":10026632800_0" function="internal">
        <lane id=":10026632800_0_0" index="0" disallow="tram rail_urban rail rail_electric rail_fast ship" speed="6.21" length="5.68" shape="729.58,767.16 729.19,768.60 728.46,769.73 727.40,770.57 726.01,771.11"/>
    </edge>
    <edge id=":10026632800_1" function="internal">
        <lane id=":10026632800_1_0" index="0" disallow="tram rail_urban rail rail_electric rail_fast ship" speed="3.97" length="1.89" shape="725.23,768.01 725.69,767.83 726.04,767.55 726.29,767.17 726.42,766.69"/>
    </edge>
    <edge id=":10026632804_0" function="internal">
        <lane id=":10026632804_0_0" index="0" disallow="tram rail_urban rail rail_electric rail_fast ship" speed="13.89" length="6.10" shape="711.27,700.52 710.97,698.83 710.25,697.83 709.31,696.88 708.33,695.35"/>
    </edge>
    <edge id=":10026632804_1" function="internal">
        <lane id=":10026632804_1_0" index="0" disallow="tram rail_urban rail rail_electric rail_fast ship" speed="7.71" length="0.44" shape="711.27,700.52 711.58,700.21"/>
    </edge>
    <edge id=":10026632804_2" function="internal">
        <lane id=":10026632804_2_0" index="0" disallow="tram rail_urban rail rail_electric rail_fast ship" speed="5.02" length="0.43" shape="711.27,700.52 711.70,700.57"/>
    </edge>
    <edge id=":10026632804_9" function="internal">
        <lane id=":10026632804_9_0" index="0" disallow="tram rail_urban rail rail_electric rail_fast ship" speed="7.71" length="8.03" shape="711.58,700.21 712.29,699.54 714.62,698.32 717.12,697.20 718.65,696.52"/>
    </edge>
    <edge id=":10026632804_10" function="internal">
        <lane id=":10026632804_10_0" index="0" disallow="tram rail_urban rail rail_electric rail_fast ship" speed="5.02" length="10.30" shape="711.70,700.57 714.55,700.92 716.20,702.14 716.21,704.20 714.57,707.08"/>
    </edge>
    <edge id=":10026632804_3" function="internal">
        <lane id=":10026632804_3_0" index="0" disallow="tram rail_urban rail rail_electric rail_fast ship" speed="8.51" length="10.00" shape="720.13,699.36 717.74,700.90 716.02,702.70 714.96,704.76 714.57,707.08"/>
    </edge>
    <edge id=":10026632804_4" function="internal">
        <lane id=":10026632804_4_0" index="0" disallow="tram rail_urban rail rail_electric rail_fast ship" speed="7.93" length="14.35" shape="720.13,699.36 716.39,700.66 713.18,700.43 710.49,698.66 708.33,695.35"/>
    </edge>
    <edge id=":10026632804_5" function="internal">
        <lane id=":10026632804_5_0" index="0" disallow="tram rail_urban rail rail_electric rail_fast ship" speed="3.65" length="4.67" shape="720.13,699.36 718.70,699.20 717.97,698.68 717.96,697.78 718.65,696.52"/>
    </edge>
    <edge id=":10026632804_6" function="internal">
        <lane id=":10026632804_6_0" index="0" disallow="tram rail_urban rail rail_electric rail_fast ship" speed="6.42" length="9.04" shape="711.22,693.99 712.59,696.08 714.28,697.19 716.30,697.34 718.65,696.52"/>
    </edge>
    <edge id=":10026632804_7" function="internal">
        <lane id=":10026632804_7_0" index="0" disallow="tram rail_urban rail rail_electric rail_fast ship" speed="13.89" length="13.64" shape="711.22,693.99 712.66,697.25 713.74,700.36 714.40,703.56 714.57,707.08"/>
    </edge>
    <edge id=":10026632804_8" function="internal">
        <lane id=":10026632804_8_0" index="0" disallow="tram rail_urban rail rail_electric rail_fast ship" speed="3.65" length="1.31" shape="711.22,693.99 711.03,695.29"/>
    </edge>
    <edge id=":10026632804_11" function="internal">
        <lane id=":10026632804_11_0" index="0" disallow="tram rail_urban rail rail_electric rail_fast ship" speed="3.65" length="3.37" shape="711.03,695.29 711.01,695.42 710.45,696.12 709.56,696.10 708.33,695.35"/>
    </edge>
    <edge id=":10026632808_0" function="internal">
        <lane id=":10026632808_0_0" index="0" disallow="tram rail_urban rail rail_electric rail_fast ship" speed="3.65" length="4.67" shape="765.32,635.64 765.65,634.24 766.27,633.59 767.16,633.69 768.32,634.54"/>
    </edge>
    <edge id=":10074625645_0" function="internal">
        <lane id=":10074625645_0_0" index="0" disallow="tram rail_urban rail rail_electric rail_fast ship" speed="6.79" length="9.39" shape="190.32,590.37 189.15,588.00 187.56,586.50 185.55,585.89 183.10,586.15"/>
    </edge>
    <edge id=":10074625645_1" function="internal">
        <lane id=":10074625645_1_0" index="0" disallow="tram rail_urban rail rail_electric rail_fast ship" speed="7.88" length="14.46" shape="190.32,590.37 189.59,586.44 190.33,583.29 192.55,580.94 196.23,579.38"/>
    </edge>
    <edge id=":10074625645_2" function="internal">
        <lane id=":10074625645_2_0" index="0" disallow="tram rail_urban rail rail_electric rail_fast ship" speed="3.65" length="4.67" shape="190.32,590.37 190.69,588.98 191.32,588.34 192.21,588.47 193.35,589.35"/>
    </edge>
    <edge id=":10074625645_3" function="internal">
        <lane id=":10074625645_3_0" index="0" disallow="tram rail_urban rail rail_electric rail_fast ship" speed="6.36" length="9.04" shape="197.05,582.48 194.74,583.45 193.36,584.92 192.89,586.89 193.35,589.35"/>
    </edge>
    <edge id=":10074625645_4" function="internal">
        <lane id=":10074625645_4_0" index="0" disallow="tram rail_urban rail rail_electric rail_fast ship" speed="13.89" length="14.42" shape="197.05,582.48 183.10,586.15"/>
    </edge>
    <edge id=":10074625645_5" function="internal">
        <lane id=":10074625645_5_0" index="0" disallow="tram rail_urban rail rail_electric rail_fast ship" speed="3.65" length="1.44" shape="197.05,582.48 195.68,582.01"/>
    </edge>
    <edge id=":10074625645_9" function="internal">
        <lane id=":10074625645_9_0" index="0" disallow="tram rail_urban rail rail_electric rail_fast ship" speed="3.65" length="3.23" shape="195.68,582.01 195.09,581.34 195.27,580.46 196.23,579.38"/>
    </edge>
    <edge id=":10074625645_6" function="internal">
        <lane id=":10074625645_6_0" index="0" disallow="tram rail_urban rail rail_electric rail_fast ship" speed="13.89" length="14.42" shape="182.29,583.05 196.23,579.38"/>
    </edge>
    <edge id=":10074625645_7" function="internal">
        <lane id=":10074625645_7_0" index="0" disallow="tram rail_urban rail rail_electric rail_fast ship" speed="8.23" length="3.96" shape="182.29,583.05 186.06,582.64 186.22,582.68"/>
    </edge>
    <edge id=":10074625645_8" function="internal">
        <lane id=":10074625645_8_0" index="0" disallow="tram rail_urban rail rail_electric rail_fast ship" speed="3.65" length="1.44" shape="182.29,583.05 183.65,583.52"/>
    </edge>
    <edge id=":10074625645_10" function="internal">
        <lane id=":10074625645_10_0" index="0" disallow="tram rail_urban rail rail_electric rail_fast ship" speed="8.23" length="10.34" shape="186.22,582.68 189.16,583.55 191.59,585.78 193.35,589.35"/>
    </edge>
    <edge id=":10074625645_11" function="internal">
        <lane id=":10074625645_11_0" index="0" disallow="tram rail_urban rail rail_electric rail_fast ship" speed="3.65" length="3.23" shape="183.65,583.52 184.24,584.19 184.06,585.07 183.10,586.15"/>
    </edge>
    <edge id=":10074685120_0" function="internal">
        <lane id=":10074685120_0_0" index="0" disallow="tram rail_urban rail rail_electric rail_fast ship" speed="27.78" length="9.41" shape="352.53,552.46 352.65,561.86"/>
        <lane id=":10074685120_0_1" index="1" disallow="tram rail_urban rail rail_electric rail_fast ship" speed="27.78" length="9.41" shape="349.33,552.49 349.45,561.90"/>
    </edge>
    <edge id=":10074685120_2" function="internal">
        <lane id=":10074685120_2_0" index="0" allow="pedestrian delivery bicycle" speed="6.03" length="7.90" shape="349.33,552.49 349.16,555.28 348.56,557.25 347.52,558.41 346.06,558.75"/>
    </edge>
    <edge id=":10074685120_3" function="internal">
        <lane id=":10074685120_3_0" index="0" allow="pedestrian delivery bicycle" speed="6.22" length="7.84" shape="346.19,555.55 347.59,556.00 348.60,557.20 349.22,559.17 349.45,561.90"/>
    </edge>
    <edge id=":10074685120_4" function="internal">
        <lane id=":10074685120_4_0" index="0" allow="pedestrian delivery bicycle" speed="3.65" length="4.67" shape="346.19,555.55 347.36,556.40 347.73,557.22 347.29,558.00 346.06,558.75"/>
    </edge>
    <edge id=":10074685121_0" function="internal">
        <lane id=":10074685121_0_0" index="0" allow="pedestrian delivery bicycle" speed="3.65" length="4.67" shape="331.50,558.17 330.33,557.32 329.97,556.51 330.40,555.73 331.63,554.97"/>
    </edge>
    <edge id=":10091911970_0" function="internal">
        <lane id=":10091911970_0_0" index="0" disallow="tram rail_urban rail rail_electric rail_fast ship" speed="5.31" length="7.86" shape="732.67,876.44 731.07,874.18 729.58,873.13 728.20,873.31 726.94,874.70"/>
    </edge>
    <edge id=":10091911970_1" function="internal">
        <lane id=":10091911970_1_0" index="0" disallow="tram rail_urban rail rail_electric rail_fast ship" speed="11.54" length="15.07" shape="732.67,876.44 730.29,871.86 728.84,867.98 728.32,864.79 728.72,862.29"/>
    </edge>
    <edge id=":10091911970_2" function="internal">
        <lane id=":10091911970_2_0" index="0" disallow="tram rail_urban rail rail_electric rail_fast ship" speed="3.65" length="4.67" shape="732.67,876.44 732.76,875.00 733.26,874.26 734.15,874.20 735.44,874.84"/>
    </edge>
    <edge id=":10091911970_3" function="internal">
        <lane id=":10091911970_3_0" index="0" disallow="tram rail_urban rail rail_electric rail_fast ship" speed="10.43" length="12.21" shape="731.69,863.48 731.49,865.26 732.05,867.75 733.37,870.94 735.44,874.84"/>
    </edge>
    <edge id=":10091911970_4" function="internal">
        <lane id=":10091911970_4_0" index="0" disallow="tram rail_urban rail rail_electric rail_fast ship" speed="13.89" length="12.20" shape="731.69,863.48 730.52,866.59 729.58,869.22 728.51,871.79 726.94,874.70"/>
    </edge>
    <edge id=":10091911970_5" function="internal">
        <lane id=":10091911970_5_0" index="0" disallow="tram rail_urban rail rail_electric rail_fast ship" speed="3.65" length="1.44" shape="731.69,863.48 730.50,864.30"/>
    </edge>
    <edge id=":10091911970_9" function="internal">
        <lane id=":10091911970_9_0" index="0" disallow="tram rail_urban rail rail_electric rail_fast ship" speed="3.65" length="3.23" shape="730.50,864.30 729.61,864.37 729.01,863.70 728.72,862.29"/>
    </edge>
    <edge id=":10091911970_6" function="internal">
        <lane id=":10091911970_6_0" index="0" disallow="tram rail_urban rail rail_electric rail_fast ship" speed="13.89" length="11.91" shape="724.29,873.34 728.72,862.29"/>
    </edge>
    <edge id=":10091911970_7" function="internal">
        <lane id=":10091911970_7_0" index="0" disallow="tram rail_urban rail rail_electric rail_fast ship" speed="7.08" length="4.48" shape="724.29,873.34 726.57,869.49"/>
    </edge>
    <edge id=":10091911970_8" function="internal">
        <lane id=":10091911970_8_0" index="0" disallow="tram rail_urban rail rail_electric rail_fast ship" speed="3.63" length="1.14" shape="724.29,873.34 725.28,872.79"/>
    </edge>
    <edge id=":10091911970_10" function="internal">
        <lane id=":10091911970_10_0" index="0" disallow="tram rail_urban rail rail_electric rail_fast ship" speed="7.08" length="11.94" shape="726.57,869.49 729.18,868.45 732.14,870.24 735.44,874.84"/>
    </edge>
    <edge id=":10091911970_11" function="internal">
        <lane id=":10091911970_11_0" index="0" disallow="tram rail_urban rail rail_electric rail_fast ship" speed="3.63" length="3.22" shape="725.28,872.79 725.46,872.69 726.29,872.69 726.79,873.36 726.94,874.70"/>
    </edge>
    <edge id=":10091911971_0" function="internal">
        <lane id=":10091911971_0_0" index="0" disallow="tram rail_urban rail rail_electric rail_fast ship" speed="3.65" length="4.67" shape="759.50,909.21 758.84,910.49 758.09,910.98 757.25,910.67 756.32,909.57"/>
    </edge>
    <edge id=":10091911975_0" function="internal">
        <lane id=":10091911975_0_0" index="0" disallow="tram rail_urban rail rail_electric rail_fast ship" speed="5.85" length="7.78" shape="738.38,862.29 736.06,861.30 734.18,861.14 732.75,861.80 731.76,863.30"/>
    </edge>
    <edge id=":10091911975_1" function="internal">
        <lane id=":10091911975_1_0" index="0" disallow="tram rail_urban rail rail_electric rail_fast ship" speed="7.82" length="12.22" shape="738.38,862.29 735.05,860.06 732.96,857.74 732.12,855.33 732.51,852.83"/>
    </edge>
    <edge id=":10091911975_2" function="internal">
        <lane id=":10091911975_2_0" index="0" disallow="tram rail_urban rail rail_electric rail_fast ship" speed="3.65" length="4.67" shape="738.38,862.29 737.72,861.01 737.75,860.12 738.49,859.61 739.93,859.49"/>
    </edge>
    <edge id=":10091911975_3" function="internal">
        <lane id=":10091911975_3_0" index="0" disallow="tram rail_urban rail rail_electric rail_fast ship" speed="6.29" length="7.58" shape="735.48,854.02 735.39,855.29 736.10,856.62 737.61,858.02 739.93,859.49"/>
    </edge>
    <edge id=":10091911975_4" function="internal">
        <lane id=":10091911975_4_0" index="0" disallow="tram rail_urban rail rail_electric rail_fast ship" speed="13.89" length="9.99" shape="735.48,854.02 731.76,863.30"/>
    </edge>
    <edge id=":10091911975_5" function="internal">
        <lane id=":10091911975_5_0" index="0" disallow="tram rail_urban rail rail_electric rail_fast ship" speed="3.65" length="1.44" shape="735.48,854.02 734.30,854.84"/>
    </edge>
    <edge id=":10091911975_9" function="internal">
        <lane id=":10091911975_9_0" index="0" disallow="tram rail_urban rail rail_electric rail_fast ship" speed="3.65" length="3.23" shape="734.30,854.84 733.40,854.91 732.81,854.24 732.51,852.83"/>
    </edge>
    <edge id=":10091911975_6" function="internal">
        <lane id=":10091911975_6_0" index="0" disallow="tram rail_urban rail rail_electric rail_fast ship" speed="13.89" length="9.99" shape="728.79,862.10 732.51,852.83"/>
    </edge>
    <edge id=":10091911975_7" function="internal">
        <lane id=":10091911975_7_0" index="0" disallow="tram rail_urban rail rail_electric rail_fast ship" speed="7.47" length="3.36" shape="728.79,862.10 730.57,859.25"/>
    </edge>
    <edge id=":10091911975_8" function="internal">
        <lane id=":10091911975_8_0" index="0" disallow="tram rail_urban rail rail_electric rail_fast ship" speed="3.65" length="1.44" shape="728.79,862.10 729.98,861.29"/>
    </edge>
    <edge id=":10091911975_10" function="internal">
        <lane id=":10091911975_10_0" index="0" disallow="tram rail_urban rail rail_electric rail_fast ship" speed="7.47" length="10.03" shape="730.57,859.25 733.02,857.86 736.14,857.94 739.93,859.49"/>
    </edge>
    <edge id=":10091911975_11" function="internal">
        <lane id=":10091911975_11_0" index="0" disallow="tram rail_urban rail rail_electric rail_fast ship" speed="3.65" length="3.23" shape="729.98,861.29 730.87,861.22 731.47,861.88 731.76,863.30"/>
    </edge>
    <edge id=":10091911978_0" function="internal">
        <lane id=":10091911978_0_0" index="0" disallow="tram rail_urban rail rail_electric rail_fast ship" speed="3.65" length="4.67" shape="810.64,957.22 811.30,958.50 811.26,959.40 810.52,959.90 809.08,960.01"/>
    </edge>
    <edge id=":10092064103_0" function="internal">
        <lane id=":10092064103_0_0" index="0" allow="pedestrian delivery bicycle" speed="5.56" length="6.53" shape="502.90,785.44 502.79,778.91"/>
    </edge>
    <edge id=":10092064103_1" function="internal">
        <lane id=":10092064103_1_0" index="0" allow="pedestrian delivery bicycle" speed="6.03" length="7.90" shape="502.90,785.44 503.26,783.98 504.43,782.97 506.40,782.38 509.19,782.24"/>
    </edge>
    <edge id=":10092064103_2" function="internal">
        <lane id=":10092064103_2_0" index="0" allow="pedestrian delivery bicycle" speed="3.65" length="4.67" shape="502.90,785.44 503.67,784.21 504.45,783.79 505.27,784.17 506.10,785.35"/>
    </edge>
    <edge id=":10092064103_3" function="internal">
        <lane id=":10092064103_3_0" index="0" allow="pedestrian delivery bicycle" speed="5.19" length="5.25" shape="505.99,778.89 506.20,780.33 506.80,781.36 507.80,782.00 509.19,782.24"/>
    </edge>
    <edge id=":10092064103_4" function="internal">
        <lane id=":10092064103_4_0" index="0" allow="pedestrian delivery bicycle" speed="5.56" length="6.46" shape="505.99,778.89 506.10,785.35"/>
    </edge>
    <edge id=":10092064103_5" function="internal">
        <lane id=":10092064103_5_0" index="0" allow="pedestrian delivery bicycle" speed="3.65" length="4.67" shape="505.99,778.89 505.19,780.09 504.40,780.50 503.59,780.10 502.79,778.91"/>
    </edge>
    <edge id=":10092064103_6" function="internal">
        <lane id=":10092064103_6_0" index="0" allow="pedestrian delivery bicycle" speed="5.00" length="5.05" shape="499.64,781.96 501.03,781.82 502.01,781.26 502.60,780.29 502.79,778.91"/>
    </edge>
    <edge id=":10092064103_7" function="internal">
        <lane id=":10092064103_7_0" index="0" disallow="tram rail_urban rail rail_electric rail_fast ship" speed="13.89" length="9.55" shape="499.64,781.96 509.19,782.24"/>
    </edge>
    <edge id=":10092064103_8" function="internal">
        <lane id=":10092064103_8_0" index="0" allow="pedestrian delivery bicycle" speed="6.29" length="7.98" shape="499.64,781.96 502.43,782.26 504.44,782.92 505.66,783.95 506.10,785.35"/>
    </edge>
    <edge id=":10092064105_0" function="internal">
        <lane id=":10092064105_0_0" index="0" disallow="tram rail_urban rail rail_electric rail_fast ship" speed="13.89" length="9.40" shape="785.96,584.59 781.68,576.23"/>
    </edge>
    <edge id=":10092064105_1" function="internal">
        <lane id=":10092064105_1_0" index="0" allow="pedestrian delivery bicycle" speed="6.85" length="3.28" shape="785.96,584.59 785.05,581.94 785.08,581.47"/>
    </edge>
    <edge id=":10092064105_7" function="internal">
        <lane id=":10092064105_7_0" index="0" allow="pedestrian delivery bicycle" speed="6.85" length="6.96" shape="785.08,581.47 785.21,579.64 786.45,577.69 788.77,576.10"/>
    </edge>
    <edge id=":10092064105_2" function="internal">
        <lane id=":10092064105_2_0" index="0" allow="pedestrian delivery bicycle" speed="5.02" length="5.02" shape="790.19,578.97 789.05,579.75 788.44,580.70 788.36,581.83 788.81,583.14"/>
    </edge>
    <edge id=":10092064105_3" function="internal">
        <lane id=":10092064105_3_0" index="0" allow="pedestrian delivery bicycle" speed="6.90" length="10.17" shape="790.19,578.97 787.53,579.85 785.22,579.69 783.27,578.48 781.68,576.23"/>
    </edge>
    <edge id=":10092064105_4" function="internal">
        <lane id=":10092064105_4_0" index="0" allow="pedestrian delivery bicycle" speed="3.65" length="4.67" shape="790.19,578.97 788.76,578.79 788.04,578.25 788.05,577.35 788.77,576.10"/>
    </edge>
    <edge id=":10092064105_5" function="internal">
        <lane id=":10092064105_5_0" index="0" allow="pedestrian delivery bicycle" speed="5.09" length="5.06" shape="784.52,574.77 785.32,575.88 786.29,576.47 787.44,576.55 788.77,576.10"/>
    </edge>
    <edge id=":10092064105_6" function="internal">
        <lane id=":10092064105_6_0" index="0" disallow="tram rail_urban rail rail_electric rail_fast ship" speed="13.89" length="9.40" shape="784.52,574.77 788.81,583.14"/>
    </edge>
    <edge id=":10092064107_0" function="internal">
        <lane id=":10092064107_0_0" index="0" allow="pedestrian delivery bicycle" speed="3.65" length="4.67" shape="838.62,550.83 840.06,550.83 840.84,551.27 840.95,552.16 840.40,553.49"/>
    </edge>
    <edge id=":10092099736_0" function="internal">
        <lane id=":10092099736_0_0" index="0" disallow="tram rail_urban rail rail_electric rail_fast ship" speed="27.78" length="0.30" shape="354.34,246.76 354.34,246.47"/>
        <lane id=":10092099736_0_1" index="1" disallow="tram rail_urban rail rail_electric rail_fast ship" speed="27.78" length="0.30" shape="357.54,246.71 357.53,246.40"/>
    </edge>
    <edge id=":10113547669_0" function="internal">
        <lane id=":10113547669_0_0" index="0" disallow="tram rail_urban rail rail_electric rail_fast ship" speed="13.89" length="0.30" shape="830.76,676.91 830.70,677.20"/>
    </edge>
    <edge id=":10113547669_1" function="internal">
        <lane id=":10113547669_1_0" index="0" disallow="tram rail_urban rail rail_electric rail_fast ship" speed="13.89" length="0.30" shape="827.57,676.56 827.63,676.27"/>
    </edge>
    <edge id=":10113547670_0" function="internal">
        <lane id=":10113547670_0_0" index="0" disallow="tram rail_urban rail rail_electric rail_fast ship" speed="13.89" length="0.30" shape="769.09,645.91 768.99,645.62"/>
    </edge>
    <edge id=":10113547670_1" function="internal">
        <lane id=":10113547670_1_0" index="0" disallow="tram rail_urban rail rail_electric rail_fast ship" speed="13.89" length="0.30" shape="771.99,644.52 772.09,644.80"/>
    </edge>
    <edge id=":10113547671_0" function="internal">
        <lane id=":10113547671_0_0" index="0" disallow="tram rail_urban rail rail_electric rail_fast ship" speed="13.89" length="0.10" shape="881.87,721.88 881.87,721.88"/>
    </edge>
    <edge id=":10113547671_1" function="internal">
        <lane id=":10113547671_1_0" index="0" disallow="tram rail_urban rail rail_electric rail_fast ship" speed="13.89" length="0.10" shape="880.13,719.19 880.13,719.19"/>
    </edge>
    <edge id=":10839396438_0" function="internal">
        <lane id=":10839396438_0_0" index="0" disallow="tram rail_urban rail rail_electric rail_fast ship" speed="8.34" length="12.32" shape="759.96,823.58 756.11,823.78 752.97,824.52 750.55,825.80 748.84,827.63"/>
    </edge>
    <edge id=":10839396438_1" function="internal">
        <lane id=":10839396438_1_0" index="0" disallow="tram rail_urban rail rail_electric rail_fast ship" speed="7.41" length="16.72" shape="759.96,823.58 755.00,822.83 752.35,820.78 751.99,817.45 753.93,812.83"/>
    </edge>
    <edge id=":10839396438_2" function="internal">
        <lane id=":10839396438_2_0" index="0" disallow="tram rail_urban rail rail_electric rail_fast ship" speed="2.78" length="4.67" shape="759.96,823.58 758.77,822.76 758.39,821.95 758.80,821.16 760.02,820.38"/>
    </edge>
    <edge id=":10839396438_3" function="internal">
        <lane id=":10839396438_3_0" index="0" disallow="tram rail_urban rail rail_electric rail_fast ship" speed="5.68" length="9.23" shape="756.69,814.45 755.62,817.00 755.82,818.84 757.28,819.97 760.02,820.38"/>
    </edge>
    <edge id=":10839396438_4" function="internal">
        <lane id=":10839396438_4_0" index="0" disallow="tram rail_urban rail rail_electric rail_fast ship" speed="13.89" length="15.34" shape="756.69,814.45 748.84,827.63"/>
    </edge>
    <edge id=":10839396438_5" function="internal">
        <lane id=":10839396438_5_0" index="0" disallow="tram rail_urban rail rail_electric rail_fast ship" speed="3.65" length="1.44" shape="756.69,814.45 755.39,815.08"/>
    </edge>
    <edge id=":10839396438_9" function="internal">
        <lane id=":10839396438_9_0" index="0" disallow="tram rail_urban rail rail_electric rail_fast ship" speed="3.65" length="3.23" shape="755.39,815.08 754.50,815.02 754.01,814.27 753.93,812.83"/>
    </edge>
    <edge id=":10839396438_6" function="internal">
        <lane id=":10839396438_6_0" index="0" disallow="tram rail_urban rail rail_electric rail_fast ship" speed="13.89" length="15.33" shape="746.08,826.00 753.93,812.83"/>
    </edge>
    <edge id=":10839396438_7" function="internal">
        <lane id=":10839396438_7_0" index="0" disallow="tram rail_urban rail rail_electric rail_fast ship" speed="8.34" length="3.40" shape="746.08,826.00 748.36,823.47"/>
    </edge>
    <edge id=":10839396438_8" function="internal">
        <lane id=":10839396438_8_0" index="0" disallow="tram rail_urban rail rail_electric rail_fast ship" speed="3.65" length="1.44" shape="746.08,826.00 747.38,825.37"/>
    </edge>
    <edge id=":10839396438_10" function="internal">
        <lane id=":10839396438_10_0" index="0" disallow="tram rail_urban rail rail_electric rail_fast ship" speed="8.34" length="12.28" shape="748.36,823.47 751.43,821.69 755.32,820.66 760.02,820.38"/>
    </edge>
    <edge id=":10839396438_11" function="internal">
        <lane id=":10839396438_11_0" index="0" disallow="tram rail_urban rail rail_electric rail_fast ship" speed="3.65" length="3.23" shape="747.38,825.37 748.28,825.44 748.76,826.19 748.84,827.63"/>
    </edge>
    <edge id=":10839396439_0" function="internal">
        <lane id=":10839396439_0_0" index="0" disallow="tram rail_urban rail rail_electric rail_fast ship" speed="2.78" length="4.67" shape="772.99,820.62 774.17,821.45 774.56,822.25 774.14,823.05 772.93,823.82"/>
    </edge>
    <edge id=":10839396445_0" function="internal">
        <lane id=":10839396445_0_0" index="0" allow="pedestrian delivery bicycle" speed="3.65" length="4.67" shape="524.34,858.82 525.60,859.52 526.06,860.29 525.72,861.12 524.59,862.01"/>
    </edge>
    <edge id=":10841382401_0" function="internal">
        <lane id=":10841382401_0_0" index="0" disallow="tram rail_urban rail rail_electric rail_fast ship" speed="11.09" length="8.41" shape="373.43,774.32 372.98,771.87 372.50,770.17 371.59,768.72 369.87,766.98"/>
    </edge>
    <edge id=":10841382401_1" function="internal">
        <lane id=":10841382401_1_0" index="0" disallow="tram rail_urban rail rail_electric rail_fast ship" speed="9.91" length="7.59" shape="376.62,769.81 374.40,769.67 372.89,769.28 371.55,768.45 369.87,766.98"/>
    </edge>
    <edge id=":10841382403_0" function="internal">
        <lane id=":10841382403_0_0" index="0" disallow="tram rail_urban rail rail_electric rail_fast ship" speed="6.19" length="7.80" shape="555.04,779.35 554.67,777.67 553.59,776.44 551.81,775.66 549.33,775.34"/>
    </edge>
    <edge id=":10841382403_1" function="internal">
        <lane id=":10841382403_1_0" index="0" disallow="tram rail_urban rail rail_electric rail_fast ship" speed="13.89" length="9.49" shape="555.04,779.35 554.94,769.86"/>
    </edge>
    <edge id=":10841382403_2" function="internal">
        <lane id=":10841382403_2_0" index="0" disallow="tram rail_urban rail rail_electric rail_fast ship" speed="3.65" length="1.44" shape="555.04,779.35 555.83,778.14"/>
    </edge>
    <edge id=":10841382403_9" function="internal">
        <lane id=":10841382403_9_0" index="0" disallow="tram rail_urban rail rail_electric rail_fast ship" speed="3.65" length="3.23" shape="555.83,778.14 556.63,777.73 557.43,778.12 558.24,779.31"/>
    </edge>
    <edge id=":10841382403_3" function="internal">
        <lane id=":10841382403_3_0" index="0" disallow="tram rail_urban rail rail_electric rail_fast ship" speed="5.94" length="7.53" shape="563.86,775.75 561.39,775.92 559.63,776.58 558.58,777.71 558.24,779.31"/>
    </edge>
    <edge id=":10841382403_4" function="internal">
        <lane id=":10841382403_4_0" index="0" disallow="tram rail_urban rail rail_electric rail_fast ship" speed="13.89" length="14.53" shape="563.86,775.75 549.33,775.34"/>
    </edge>
    <edge id=":10841382403_5" function="internal">
        <lane id=":10841382403_5_0" index="0" disallow="tram rail_urban rail rail_electric rail_fast ship" speed="7.48" length="11.95" shape="563.86,775.75 559.98,775.31 557.20,774.18 555.52,772.36 554.94,769.86"/>
    </edge>
    <edge id=":10841382403_6" function="internal">
        <lane id=":10841382403_6_0" index="0" disallow="tram rail_urban rail rail_electric rail_fast ship" speed="13.89" length="9.49" shape="558.14,769.82 558.24,779.31"/>
    </edge>
    <edge id=":10841382403_7" function="internal">
        <lane id=":10841382403_7_0" index="0" disallow="tram rail_urban rail rail_electric rail_fast ship" speed="7.24" length="2.58" shape="558.14,769.82 557.61,772.35"/>
    </edge>
    <edge id=":10841382403_8" function="internal">
        <lane id=":10841382403_8_0" index="0" disallow="tram rail_urban rail rail_electric rail_fast ship" speed="3.65" length="1.44" shape="558.14,769.82 557.35,771.03"/>
    </edge>
    <edge id=":10841382403_10" function="internal">